<?xml version="1.0" encoding="UTF-8"?>

<!-- generated on 2022-06-17 17:33:55 by Eclipse SUMO netedit Version v1_11_0+0688-6b1e3bbd659
<configuration xmlns:xsi="http://www.w3.org/2001/XMLSchema-instance" xsi:noNamespaceSchemaLocation="http://sumo.dlr.de/xsd/netconvertConfiguration.xsd">

    <input>
        <sumo-net-file value="/home/arms03/Desktop/Practice/Testing-02%20(copy)/my_network.net.xml"/>
    </input>

    <output>
        <output-file value="/home/arms03/Desktop/Practice/Testing-02%20(copy)/my_network.net02.xml.net.xml"/>
    </output>

    <processing>
        <geometry.min-radius.fix.railways value="false"/>
        <geometry.max-grade.fix value="false"/>
        <offset.disable-normalization value="true"/>
        <lefthand value="true"/>
    </processing>

    <junctions>
        <no-turnarounds value="true"/>
        <junctions.corner-detail value="5"/>
        <junctions.limit-turn-speed value="5.5"/>
        <rectangular-lane-cut value="false"/>
    </junctions>

    <pedestrian>
        <walkingareas value="false"/>
    </pedestrian>

    <report>
        <aggregate-warnings value="5"/>
    </report>

</configuration>
-->

<net version="1.9" junctionCornerDetail="5" lefthand="true" limitTurnSpeed="5.50" xmlns:xsi="http://www.w3.org/2001/XMLSchema-instance" xsi:noNamespaceSchemaLocation="http://sumo.dlr.de/xsd/net_file.xsd">

    <location netOffset="500.00,500.00" convBoundary="0.00,0.00,1000.00,1000.00" origBoundary="-500.00,-500.00,500.00,500.00" projParameter="!"/>

    <edge id=":1_0" function="internal">
        <lane id=":1_0_0" index="0" speed="3.65" length="4.67" shape="501.60,-0.00 500.80,-1.20 500.00,-1.60 499.20,-1.20 498.40,-0.00"/>
    </edge>
    <edge id=":2_0" function="internal">
        <lane id=":2_0_0" index="0" speed="3.65" length="4.67" shape="1000.00,501.60 1001.20,500.80 1001.60,500.00 1001.20,499.20 1000.00,498.40"/>
    </edge>
    <edge id=":3_0" function="internal">
        <lane id=":3_0_0" index="0" speed="3.65" length="4.67" shape="498.40,1000.00 499.20,1001.20 500.00,1001.60 500.80,1001.20 501.60,1000.00"/>
    </edge>
    <edge id=":4_0" function="internal">
        <lane id=":4_0_0" index="0" speed="3.65" length="4.67" shape="0.00,498.40 -1.20,499.20 -1.60,500.00 -1.20,500.80 0.00,501.60"/>
    </edge>
    <edge id=":5_0" function="internal">
        <lane id=":5_0_0" index="0" speed="6.51" length="9.03" shape="492.00,486.40 491.65,488.85 490.60,490.60 488.85,491.65 486.40,492.00"/>
    </edge>
    <edge id=":5_1" function="internal">
        <lane id=":5_1_0" index="0" speed="14.00" length="27.20" shape="492.00,486.40 492.00,513.60"/>
        <lane id=":5_1_1" index="1" speed="14.00" length="27.20" shape="495.20,486.40 495.20,513.60"/>
        <lane id=":5_1_2" index="2" speed="14.00" length="27.20" shape="498.40,486.40 498.40,513.60"/>
    </edge>
    <edge id=":5_4" function="internal">
        <lane id=":5_4_0" index="0" speed="10.36" length="7.98" shape="498.40,486.40 499.35,493.05 500.00,494.13"/>
    </edge>
    <edge id=":5_5" function="internal">
        <lane id=":5_5_0" index="0" speed="3.65" length="2.34" shape="498.40,486.40 499.20,487.60 500.00,488.00"/>
    </edge>
    <edge id=":5_24" function="internal">
        <lane id=":5_24_0" index="0" speed="10.36" length="16.53" shape="500.00,494.13 502.20,497.80 506.95,500.65 513.60,501.60"/>
    </edge>
    <edge id=":5_25" function="internal">
        <lane id=":5_25_0" index="0" speed="3.65" length="2.34" shape="500.00,488.00 500.80,487.60 501.60,486.40"/>
    </edge>
    <edge id=":5_6" function="internal">
        <lane id=":5_6_0" index="0" speed="6.51" length="9.03" shape="513.60,492.00 511.15,491.65 509.40,490.60 508.35,488.85 508.00,486.40"/>
    </edge>
    <edge id=":5_7" function="internal">
        <lane id=":5_7_0" index="0" speed="14.00" length="27.20" shape="513.60,492.00 486.40,492.00"/>
        <lane id=":5_7_1" index="1" speed="14.00" length="27.20" shape="513.60,495.20 486.40,495.20"/>
        <lane id=":5_7_2" index="2" speed="14.00" length="27.20" shape="513.60,498.40 486.40,498.40"/>
    </edge>
    <edge id=":5_10" function="internal">
        <lane id=":5_10_0" index="0" speed="10.36" length="24.51" shape="513.60,498.40 506.95,499.35 502.20,502.20 499.35,506.95 498.40,513.60"/>
    </edge>
    <edge id=":5_11" function="internal">
        <lane id=":5_11_0" index="0" speed="3.65" length="4.67" shape="513.60,498.40 512.40,499.20 512.00,500.00 512.40,500.80 513.60,501.60"/>
    </edge>
    <edge id=":5_12" function="internal">
        <lane id=":5_12_0" index="0" speed="6.51" length="9.03" shape="508.00,513.60 508.35,511.15 509.40,509.40 511.15,508.35 513.60,508.00"/>
    </edge>
    <edge id=":5_13" function="internal">
        <lane id=":5_13_0" index="0" speed="14.00" length="27.20" shape="508.00,513.60 508.00,486.40"/>
        <lane id=":5_13_1" index="1" speed="14.00" length="27.20" shape="504.80,513.60 504.80,486.40"/>
        <lane id=":5_13_2" index="2" speed="14.00" length="27.20" shape="501.60,513.60 501.60,486.40"/>
    </edge>
    <edge id=":5_16" function="internal">
        <lane id=":5_16_0" index="0" speed="10.36" length="7.98" shape="501.60,513.60 500.65,506.95 500.00,505.87"/>
    </edge>
    <edge id=":5_17" function="internal">
        <lane id=":5_17_0" index="0" speed="3.65" length="2.34" shape="501.60,513.60 500.80,512.40 500.00,512.00"/>
    </edge>
    <edge id=":5_26" function="internal">
        <lane id=":5_26_0" index="0" speed="10.36" length="16.53" shape="500.00,505.87 497.80,502.20 493.05,499.35 486.40,498.40"/>
    </edge>
    <edge id=":5_27" function="internal">
        <lane id=":5_27_0" index="0" speed="3.65" length="2.34" shape="500.00,512.00 499.20,512.40 498.40,513.60"/>
    </edge>
    <edge id=":5_18" function="internal">
        <lane id=":5_18_0" index="0" speed="6.51" length="9.03" shape="486.40,508.00 488.85,508.35 490.60,509.40 491.65,511.15 492.00,513.60"/>
    </edge>
    <edge id=":5_19" function="internal">
        <lane id=":5_19_0" index="0" speed="14.00" length="27.20" shape="486.40,508.00 513.60,508.00"/>
        <lane id=":5_19_1" index="1" speed="14.00" length="27.20" shape="486.40,504.80 513.60,504.80"/>
        <lane id=":5_19_2" index="2" speed="14.00" length="27.20" shape="486.40,501.60 513.60,501.60"/>
    </edge>
    <edge id=":5_22" function="internal">
        <lane id=":5_22_0" index="0" speed="10.36" length="24.51" shape="486.40,501.60 493.05,500.65 497.80,497.80 500.65,493.05 501.60,486.40"/>
    </edge>
    <edge id=":5_23" function="internal">
        <lane id=":5_23_0" index="0" speed="3.65" length="4.67" shape="486.40,501.60 487.60,500.80 488.00,500.00 487.60,499.20 486.40,498.40"/>
    </edge>

    <edge id="e1" from="1" to="5" priority="1">
        <lane id="e1_0" index="0" speed="14.00" length="486.40" shape="492.00,0.00 492.00,486.40"/>
        <lane id="e1_1" index="1" speed="14.00" length="486.40" shape="495.20,0.00 495.20,486.40"/>
        <lane id="e1_2" index="2" speed="14.00" length="486.40" shape="498.40,0.00 498.40,486.40"/>
    </edge>
    <edge id="e2" from="2" to="5" priority="1">
        <lane id="e2_0" index="0" speed="14.00" length="486.40" shape="1000.00,492.00 513.60,492.00"/>
        <lane id="e2_1" index="1" speed="14.00" length="486.40" shape="1000.00,495.20 513.60,495.20"/>
        <lane id="e2_2" index="2" speed="14.00" length="486.40" shape="1000.00,498.40 513.60,498.40"/>
    </edge>
    <edge id="e3" from="3" to="5" priority="1">
        <lane id="e3_0" index="0" speed="14.00" length="486.40" shape="508.00,1000.00 508.00,513.60"/>
        <lane id="e3_1" index="1" speed="14.00" length="486.40" shape="504.80,1000.00 504.80,513.60"/>
        <lane id="e3_2" index="2" speed="14.00" length="486.40" shape="501.60,1000.00 501.60,513.60"/>
    </edge>
    <edge id="e4" from="4" to="5" priority="1">
        <lane id="e4_0" index="0" speed="14.00" length="486.40" shape="0.00,508.00 486.40,508.00"/>
        <lane id="e4_1" index="1" speed="14.00" length="486.40" shape="0.00,504.80 486.40,504.80"/>
        <lane id="e4_2" index="2" speed="14.00" length="486.40" shape="0.00,501.60 486.40,501.60"/>
    </edge>
    <edge id="e5" from="5" to="1" priority="1">
        <lane id="e5_0" index="0" speed="14.00" length="486.40" shape="508.00,486.40 508.00,0.00"/>
        <lane id="e5_1" index="1" speed="14.00" length="486.40" shape="504.80,486.40 504.80,0.00"/>
        <lane id="e5_2" index="2" speed="14.00" length="486.40" shape="501.60,486.40 501.60,0.00"/>
    </edge>
    <edge id="e6" from="5" to="2" priority="1">
        <lane id="e6_0" index="0" speed="14.00" length="486.40" shape="513.60,508.00 1000.00,508.00"/>
        <lane id="e6_1" index="1" speed="14.00" length="486.40" shape="513.60,504.80 1000.00,504.80"/>
        <lane id="e6_2" index="2" speed="14.00" length="486.40" shape="513.60,501.60 1000.00,501.60"/>
    </edge>
    <edge id="e7" from="5" to="3" priority="1">
        <lane id="e7_0" index="0" speed="14.00" length="486.40" shape="492.00,513.60 492.00,1000.00"/>
        <lane id="e7_1" index="1" speed="14.00" length="486.40" shape="495.20,513.60 495.20,1000.00"/>
        <lane id="e7_2" index="2" speed="14.00" length="486.40" shape="498.40,513.60 498.40,1000.00"/>
    </edge>
    <edge id="e8" from="5" to="4" priority="1">
        <lane id="e8_0" index="0" speed="14.00" length="486.40" shape="486.40,492.00 0.00,492.00"/>
        <lane id="e8_1" index="1" speed="14.00" length="486.40" shape="486.40,495.20 0.00,495.20"/>
        <lane id="e8_2" index="2" speed="14.00" length="486.40" shape="486.40,498.40 0.00,498.40"/>
    </edge>

    <junction id="1" type="priority" x="500.00" y="0.00" incLanes="e5_0 e5_1 e5_2" intLanes=":1_0_0" shape="500.00,-0.00 509.60,-0.00 500.00,-0.00">
        <request index="0" response="0" foes="0" cont="0"/>
    </junction>
    <junction id="2" type="priority" x="1000.00" y="500.00" incLanes="e6_0 e6_1 e6_2" intLanes=":2_0_0" shape="1000.00,500.00 1000.00,509.60 1000.00,500.00">
        <request index="0" response="0" foes="0" cont="0"/>
    </junction>
    <junction id="3" type="priority" x="500.00" y="1000.00" incLanes="e7_0 e7_1 e7_2" intLanes=":3_0_0" shape="500.00,1000.00 490.40,1000.00 500.00,1000.00">
        <request index="0" response="0" foes="0" cont="0"/>
    </junction>
    <junction id="4" type="priority" x="0.00" y="500.00" incLanes="e8_0 e8_1 e8_2" intLanes=":4_0_0" shape="0.00,500.00 0.00,490.40 0.00,500.00">
        <request index="0" response="0" foes="0" cont="0"/>
    </junction>
    <junction id="5" type="priority" x="500.00" y="500.00" incLanes="e1_0 e1_1 e1_2 e2_0 e2_1 e2_2 e3_0 e3_1 e3_2 e4_0 e4_1 e4_2" intLanes=":5_0_0 :5_1_0 :5_1_1 :5_1_2 :5_24_0 :5_25_0 :5_6_0 :5_7_0 :5_7_1 :5_7_2 :5_10_0 :5_11_0 :5_12_0 :5_13_0 :5_13_1 :5_13_2 :5_26_0 :5_27_0 :5_18_0 :5_19_0 :5_19_1 :5_19_2 :5_22_0 :5_23_0" shape="490.40,486.40 509.60,486.40 510.04,488.62 510.60,489.40 511.38,489.96 512.38,490.29 513.60,490.40 513.60,509.60 511.38,510.04 510.60,510.60 510.04,511.38 509.71,512.38 509.60,513.60 490.40,513.60 489.96,511.38 489.40,510.60 488.62,510.04 487.62,509.71 486.40,509.60 486.40,490.40 488.62,489.96 489.40,489.40 489.96,488.62 490.29,487.62">
        <request index="0"  response="000000000000000000000000" foes="000000000000001110000000" cont="0"/>
        <request index="1"  response="000000000000000000000000" foes="011111110000011110000000" cont="0"/>
        <request index="2"  response="000000000000000000000000" foes="011111110000011110000000" cont="0"/>
        <request index="3"  response="000000000000000000000000" foes="011111110000011110000000" cont="0"/>
        <request index="4"  response="000000001110000000000000" foes="011110001110111110000000" cont="1"/>
        <request index="5"  response="010000001110000000000000" foes="010000001110000000000000" cont="1"/>
        <request index="6"  response="000000001110000000000000" foes="000000001110000000000000" cont="0"/>
        <request index="7"  response="000000011110000000011111" foes="110000011110000000011111" cont="0"/>
        <request index="8"  response="000000011110000000011111" foes="110000011110000000011111" cont="0"/>
        <request index="9"  response="000000011110000000011111" foes="110000011110000000011111" cont="0"/>
        <request index="10" response="001110011110000000011110" foes="001110111110000000011110" cont="0"/>
        <request index="11" response="001110000000000000010000" foes="001110000000000000010000" cont="0"/>
        <request index="12" response="000000000000000000000000" foes="001110000000000000000000" cont="0"/>
        <request index="13" response="000000000000000000000000" foes="011110000000011111110000" cont="0"/>
        <request index="14" response="000000000000000000000000" foes="011110000000011111110000" cont="0"/>
        <request index="15" response="000000000000000000000000" foes="011110000000011111110000" cont="0"/>
        <request index="16" response="000000000000000000001110" foes="111110000000011110001110" cont="1"/>
        <request index="17" response="000000000000010000001110" foes="000000000000010000001110" cont="1"/>
        <request index="18" response="000000000000000000001110" foes="000000000000000000001110" cont="0"/>
        <request index="19" response="000000011111000000011110" foes="000000011111110000011110" cont="0"/>
        <request index="20" response="000000011111000000011110" foes="000000011111110000011110" cont="0"/>
        <request index="21" response="000000011111000000011110" foes="000000011111110000011110" cont="0"/>
        <request index="22" response="000000011110001110011110" foes="000000011110001110111110" cont="0"/>
        <request index="23" response="000000010000001110000000" foes="000000010000001110000000" cont="0"/>
    </junction>

    <junction id=":5_24_0" type="internal" x="500.00" y="494.13" incLanes=":5_4_0 e3_0 e3_1 e3_2" intLanes=":5_7_0 :5_7_1 :5_7_2 :5_10_0 :5_11_0 :5_12_0 :5_13_0 :5_13_1 :5_13_2 :5_19_0 :5_19_1 :5_19_2 :5_22_0"/>
    <junction id=":5_25_0" type="internal" x="500.00" y="488.00" incLanes=":5_5_0 e2_0 e3_0 e3_1 e3_2 e4_2" intLanes=":5_6_0 :5_13_0 :5_13_1 :5_13_2 :5_22_0"/>
    <junction id=":5_26_0" type="internal" x="500.00" y="505.87" incLanes=":5_16_0 e1_0 e1_1 e1_2" intLanes=":5_0_0 :5_1_0 :5_1_1 :5_1_2 :5_7_0 :5_7_1 :5_7_2 :5_10_0 :5_19_0 :5_19_1 :5_19_2 :5_22_0 :5_23_0"/>
    <junction id=":5_27_0" type="internal" x="500.00" y="512.00" incLanes=":5_17_0 e1_0 e1_1 e1_2 e2_2 e4_0" intLanes=":5_1_0 :5_1_1 :5_1_2 :5_10_0 :5_18_0"/>

    <connection from="e1" to="e8" fromLane="0" toLane="0" via=":5_0_0" dir="l" state="M"/>
    <connection from="e1" to="e7" fromLane="0" toLane="0" via=":5_1_0" dir="s" state="M"/>
    <connection from="e1" to="e7" fromLane="1" toLane="1" via=":5_1_1" dir="s" state="M"/>
    <connection from="e1" to="e7" fromLane="2" toLane="2" via=":5_1_2" dir="s" state="M"/>
    <connection from="e1" to="e6" fromLane="2" toLane="2" via=":5_4_0" dir="r" state="m"/>
    <connection from="e1" to="e5" fromLane="2" toLane="2" via=":5_5_0" dir="T" state="m"/>
    <connection from="e2" to="e5" fromLane="0" toLane="0" via=":5_6_0" dir="l" state="m"/>
    <connection from="e2" to="e8" fromLane="0" toLane="0" via=":5_7_0" dir="s" state="m"/>
    <connection from="e2" to="e8" fromLane="1" toLane="1" via=":5_7_1" dir="s" state="m"/>
    <connection from="e2" to="e8" fromLane="2" toLane="2" via=":5_7_2" dir="s" state="m"/>
    <connection from="e2" to="e7" fromLane="2" toLane="2" via=":5_10_0" dir="r" state="m"/>
    <connection from="e2" to="e6" fromLane="2" toLane="2" via=":5_11_0" dir="T" state="m"/>
    <connection from="e3" to="e6" fromLane="0" toLane="0" via=":5_12_0" dir="l" state="M"/>
    <connection from="e3" to="e5" fromLane="0" toLane="0" via=":5_13_0" dir="s" state="M"/>
    <connection from="e3" to="e5" fromLane="1" toLane="1" via=":5_13_1" dir="s" state="M"/>
    <connection from="e3" to="e5" fromLane="2" toLane="2" via=":5_13_2" dir="s" state="M"/>
    <connection from="e3" to="e8" fromLane="2" toLane="2" via=":5_16_0" dir="r" state="m"/>
    <connection from="e3" to="e7" fromLane="2" toLane="2" via=":5_17_0" dir="T" state="m"/>
    <connection from="e4" to="e7" fromLane="0" toLane="0" via=":5_18_0" dir="l" state="m"/>
    <connection from="e4" to="e6" fromLane="0" toLane="0" via=":5_19_0" dir="s" state="m"/>
    <connection from="e4" to="e6" fromLane="1" toLane="1" via=":5_19_1" dir="s" state="m"/>
    <connection from="e4" to="e6" fromLane="2" toLane="2" via=":5_19_2" dir="s" state="m"/>
    <connection from="e4" to="e5" fromLane="2" toLane="2" via=":5_22_0" dir="r" state="m"/>
    <connection from="e4" to="e8" fromLane="2" toLane="2" via=":5_23_0" dir="T" state="m"/>
    <connection from="e5" to="e1" fromLane="2" toLane="2" via=":1_0_0" dir="T" state="M"/>
    <connection from="e6" to="e2" fromLane="2" toLane="2" via=":2_0_0" dir="T" state="M"/>
    <connection from="e7" to="e3" fromLane="2" toLane="2" via=":3_0_0" dir="T" state="M"/>
    <connection from="e8" to="e4" fromLane="2" toLane="2" via=":4_0_0" dir="T" state="M"/>

    <connection from=":1_0" to="e1" fromLane="0" toLane="2" dir="T" state="M"/>
    <connection from=":2_0" to="e2" fromLane="0" toLane="2" dir="T" state="M"/>
    <connection from=":3_0" to="e3" fromLane="0" toLane="2" dir="T" state="M"/>
    <connection from=":4_0" to="e4" fromLane="0" toLane="2" dir="T" state="M"/>
    <connection from=":5_0" to="e8" fromLane="0" toLane="0" dir="l" state="M"/>
    <connection from=":5_1" to="e7" fromLane="0" toLane="0" dir="s" state="M"/>
    <connection from=":5_1" to="e7" fromLane="1" toLane="1" dir="s" state="M"/>
    <connection from=":5_1" to="e7" fromLane="2" toLane="2" dir="s" state="M"/>
    <connection from=":5_4" to="e6" fromLane="0" toLane="2" via=":5_24_0" dir="r" state="m"/>
    <connection from=":5_24" to="e6" fromLane="0" toLane="2" dir="r" state="M"/>
    <connection from=":5_5" to="e5" fromLane="0" toLane="2" via=":5_25_0" dir="T" state="m"/>
    <connection from=":5_25" to="e5" fromLane="0" toLane="2" dir="T" state="M"/>
    <connection from=":5_6" to="e5" fromLane="0" toLane="0" dir="l" state="M"/>
    <connection from=":5_7" to="e8" fromLane="0" toLane="0" dir="s" state="M"/>
    <connection from=":5_7" to="e8" fromLane="1" toLane="1" dir="s" state="M"/>
    <connection from=":5_7" to="e8" fromLane="2" toLane="2" dir="s" state="M"/>
    <connection from=":5_10" to="e7" fromLane="0" toLane="2" dir="r" state="M"/>
    <connection from=":5_11" to="e6" fromLane="0" toLane="2" dir="T" state="M"/>
    <connection from=":5_12" to="e6" fromLane="0" toLane="0" dir="l" state="M"/>
    <connection from=":5_13" to="e5" fromLane="0" toLane="0" dir="s" state="M"/>
    <connection from=":5_13" to="e5" fromLane="1" toLane="1" dir="s" state="M"/>
    <connection from=":5_13" to="e5" fromLane="2" toLane="2" dir="s" state="M"/>
    <connection from=":5_16" to="e8" fromLane="0" toLane="2" via=":5_26_0" dir="r" state="m"/>
    <connection from=":5_26" to="e8" fromLane="0" toLane="2" dir="r" state="M"/>
    <connection from=":5_17" to="e7" fromLane="0" toLane="2" via=":5_27_0" dir="T" state="m"/>
    <connection from=":5_27" to="e7" fromLane="0" toLane="2" dir="T" state="M"/>
    <connection from=":5_18" to="e7" fromLane="0" toLane="0" dir="l" state="M"/>
    <connection from=":5_19" to="e6" fromLane="0" toLane="0" dir="s" state="M"/>
    <connection from=":5_19" to="e6" fromLane="1" toLane="1" dir="s" state="M"/>
    <connection from=":5_19" to="e6" fromLane="2" toLane="2" dir="s" state="M"/>
    <connection from=":5_22" to="e5" fromLane="0" toLane="2" dir="r" state="M"/>
    <connection from=":5_23" to="e8" fromLane="0" toLane="2" dir="T" state="M"/>

</net>
